Group03_17.txt
544 
Group04_44.txt
22 
Group12_05.txt
234 240 402 
Group13_22.txt
3847 11939 
Group14_44.txt
594 
